Version 4
SHEET 1 880 680
WIRE 192 -16 144 -16
WIRE 336 -16 272 -16
WIRE 16 80 0 80
WIRE 144 80 144 -16
WIRE 144 80 96 80
WIRE -288 112 -288 80
WIRE 0 112 0 80
WIRE 144 144 144 80
WIRE 192 144 144 144
WIRE 336 160 336 -16
WIRE 336 160 256 160
WIRE 192 176 16 176
WIRE 16 192 16 176
WIRE -288 224 -288 192
WIRE 16 288 16 272
FLAG 0 112 0
FLAG -288 80 Vcc
FLAG -288 224 0
FLAG 224 128 Vcc
FLAG 224 192 0
FLAG 16 288 0
SYMBOL res 288 -32 R90
WINDOW 0 0 56 VBottom 2
WINDOW 3 32 56 VTop 2
SYMATTR InstName R1
SYMATTR Value 8.2k
SYMBOL res 112 64 R90
WINDOW 0 0 56 VBottom 2
WINDOW 3 32 56 VTop 2
SYMATTR InstName R2
SYMATTR Value 10k
SYMBOL Misc\\signal 16 176 R0
WINDOW 123 0 0 Left 0
WINDOW 39 0 0 Left 0
SYMATTR InstName V1
SYMATTR Value SINE(1.32 1.32 100)
SYMBOL voltage -288 96 R0
WINDOW 123 0 0 Left 0
WINDOW 39 0 0 Left 0
SYMATTR InstName V2
SYMATTR Value 9
SYMBOL Opamps\\UniversalOpamp2 224 160 R0
SYMATTR InstName U2
TEXT -322 312 Left 2 !.tran 0.07
